Version 4
SHEET 1 924 680
WIRE 320 -96 208 -96
WIRE 512 -96 384 -96
WIRE 144 0 128 0
WIRE 208 0 208 -96
WIRE 208 0 144 0
WIRE 240 0 208 0
WIRE 352 0 352 -16
WIRE 352 0 320 0
WIRE 400 0 352 0
WIRE 512 0 512 -96
WIRE 512 0 480 0
WIRE 608 0 512 0
WIRE 624 0 608 0
WIRE 352 32 352 0
WIRE 144 48 144 0
WIRE 608 48 608 0
WIRE 352 128 352 112
WIRE 368 128 352 128
WIRE 144 160 144 128
WIRE 352 160 352 128
WIRE 608 160 608 128
WIRE 352 240 352 224
FLAG 144 160 0
FLAG 352 240 0
FLAG 608 160 0
FLAG 128 0 1
IOPIN 128 0 In
FLAG 352 -16 3
IOPIN 352 -16 In
FLAG 624 0 4
IOPIN 624 0 In
FLAG 368 128 2
IOPIN 368 128 In
SYMBOL voltage 144 32 R0
WINDOW 3 24 96 Invisible 2
WINDOW 123 0 0 Left 0
WINDOW 39 0 0 Left 0
SYMATTR Value 1
SYMATTR InstName V1
SYMBOL ind 336 16 M270
WINDOW 0 32 56 VTop 2
WINDOW 3 5 56 VBottom 2
SYMATTR InstName L1
SYMATTR Value 1
SYMBOL ind 496 16 M270
WINDOW 0 32 56 VTop 2
WINDOW 3 5 56 VBottom 2
SYMATTR InstName L2
SYMATTR Value 1
SYMBOL cap 336 160 R0
SYMATTR InstName C
SYMATTR Value 1
SYMBOL cap 384 -112 R90
WINDOW 0 0 32 VBottom 2
WINDOW 3 32 32 VTop 2
SYMATTR InstName C1
SYMATTR Value 1
SYMBOL res 592 32 R0
SYMATTR InstName R
SYMATTR Value 1
SYMBOL ind 336 16 R0
SYMATTR InstName L
SYMATTR Value 1
TEXT 88 368 Left 2 ;T-Coil ver 1c, redraw with 3rd inductor
TEXT 88 392 Left 2 ;Last update: 30 July 2025
