Version 4
SHEET 1 2424 680
WIRE 1936 -272 1920 -272
WIRE 1936 -256 1936 -272
WIRE 1936 -160 1936 -176
WIRE 1936 -160 1840 -160
WIRE 1952 -160 1936 -160
WIRE 1936 -128 1936 -160
WIRE 1504 -64 1488 -64
WIRE 1504 -32 1504 -64
WIRE 1840 -32 1840 -160
WIRE 1936 0 1936 -48
WIRE 2112 0 1936 0
WIRE 2128 0 2112 0
WIRE 1104 32 1088 32
WIRE 1936 32 1936 0
WIRE 2112 48 2112 0
WIRE 1104 64 1104 32
WIRE 1504 80 1504 48
WIRE 1840 144 1840 32
WIRE 1936 144 1936 112
WIRE 1936 144 1840 144
WIRE 1952 144 1936 144
WIRE 2112 144 2112 112
WIRE 1104 176 1104 144
WIRE 1216 176 1104 176
WIRE 1248 176 1216 176
WIRE 1504 176 1504 160
WIRE 1648 176 1504 176
WIRE 1680 176 1648 176
WIRE 1104 192 1104 176
WIRE 1504 192 1504 176
WIRE 1936 192 1936 144
WIRE 1216 208 1216 176
WIRE 1648 208 1648 176
WIRE 1056 272 1040 272
WIRE 1456 272 1440 272
WIRE 1888 272 1872 272
WIRE 1216 288 1216 272
WIRE 1648 288 1648 272
WIRE 1104 336 1104 288
WIRE 1504 336 1504 288
WIRE 1936 336 1936 288
FLAG 2112 144 0
FLAG 1952 144 1
IOPIN 1952 144 In
FLAG 2128 0 Vout
IOPIN 2128 0 In
FLAG 1952 -160 3
IOPIN 1952 -160 In
FLAG 1488 -64 Vdd
IOPIN 1488 -64 In
FLAG 1088 32 Vdd
IOPIN 1088 32 In
FLAG 1104 336 0
FLAG 1504 336 0
FLAG 1040 272 Vin
IOPIN 1040 272 In
FLAG 1440 272 Vin
IOPIN 1440 272 In
FLAG 1216 288 0
FLAG 1648 288 0
FLAG 1248 176 Vout
IOPIN 1248 176 In
FLAG 1680 176 Vout
IOPIN 1680 176 In
FLAG 1936 336 0
FLAG 1872 272 Vin
IOPIN 1872 272 In
FLAG 1920 -272 Vdd
IOPIN 1920 -272 In
SYMBOL ind2 1920 16 R0
SYMATTR InstName L1
SYMATTR Value 1
SYMATTR Type ind
SYMATTR SpiceLine Rser=0
SYMBOL ind2 1920 -144 R0
SYMATTR InstName L2
SYMATTR Value 1
SYMATTR Type ind
SYMATTR SpiceLine Rser=0
SYMBOL res 1920 -272 R0
SYMATTR InstName Rd
SYMATTR Value 1
SYMBOL cap 1824 -32 R0
SYMATTR InstName C1
SYMATTR Value 1
SYMBOL cap 2096 48 R0
SYMATTR InstName C_load
SYMATTR Value 1
SYMBOL mesfet 1056 192 R0
SYMATTR InstName Q1
SYMATTR Value ""
SYMATTR Prefix Q
SYMBOL mesfet 1456 192 R0
SYMATTR InstName Q2
SYMATTR Value ""
SYMATTR Prefix Q
SYMBOL res 1088 48 R0
SYMATTR InstName Rd
SYMATTR Value 1
SYMBOL res 1488 64 R0
SYMATTR InstName Rd
SYMATTR Value 1
SYMBOL ind 1488 -48 R0
SYMATTR InstName Ld
SYMATTR Value 1
SYMBOL cap 1632 208 R0
SYMATTR InstName C_load
SYMATTR Value 1
SYMBOL cap 1200 208 R0
SYMATTR InstName C_load
SYMATTR Value 1
SYMBOL mesfet 1888 192 R0
SYMATTR InstName Q3
SYMATTR Value ""
SYMATTR Prefix Q
TEXT 1992 -72 Left 2 !K1 L1 L2 1
TEXT 1088 384 Left 2 ;(a)
TEXT 1488 384 Left 2 ;(b)
TEXT 1920 384 Left 2 ;(c)
TEXT 1096 424 Left 2 ;Last update: 5 Aug 2025
TEXT 984 456 Left 2 ;T-coil-common_common_source
