Version 4
SHEET 1 880 680
WIRE 320 -96 208 -96
WIRE 512 -96 384 -96
WIRE 144 0 128 0
WIRE 208 0 208 -96
WIRE 208 0 144 0
WIRE 240 0 208 0
WIRE 352 0 352 -16
WIRE 352 0 320 0
WIRE 400 0 352 0
WIRE 512 0 512 -96
WIRE 512 0 480 0
WIRE 608 0 512 0
WIRE 624 0 608 0
WIRE 608 32 608 0
WIRE 144 48 144 0
WIRE 352 48 352 0
WIRE 144 160 144 128
WIRE 352 160 352 112
WIRE 608 160 608 112
FLAG 144 160 0
FLAG 352 160 0
FLAG 608 160 0
FLAG 128 0 1
IOPIN 128 0 In
FLAG 352 -16 3
IOPIN 352 -16 In
FLAG 624 0 2
IOPIN 624 0 In
SYMBOL voltage 144 32 R0
WINDOW 3 24 96 Invisible 2
WINDOW 123 0 0 Left 0
WINDOW 39 0 0 Left 0
SYMATTR Value 1
SYMATTR InstName V1
SYMBOL ind2 336 16 M270
WINDOW 0 32 56 VTop 2
WINDOW 3 5 56 VBottom 2
SYMATTR InstName L1
SYMATTR Value 1
SYMATTR Type ind
SYMBOL ind2 496 16 M270
WINDOW 0 32 56 VTop 2
WINDOW 3 5 56 VBottom 2
SYMATTR InstName L2
SYMATTR Value 1
SYMATTR Type ind
SYMBOL cap 384 -112 R90
WINDOW 0 0 32 VBottom 2
WINDOW 3 32 32 VTop 2
SYMATTR InstName C1
SYMATTR Value 1
SYMBOL res 592 16 R0
SYMATTR InstName R
SYMATTR Value 1
SYMBOL Contrib\\Toshiba\\diode\\DF2B5M5SL 336 48 R0
WINDOW 0 -44 32 Left 2
SYMATTR InstName U1
SYMATTR Value ""
TEXT 432 48 Left 2 !K L1 L2 1
TEXT 128 256 Left 2 ;Last update: 5 Aug 2025
TEXT 128 232 Left 2 ;T-Coil-TVS
