Version 4
SHEET 1 880 680
WIRE 288 -128 160 -128
WIRE 464 -128 368 -128
WIRE 160 -32 160 -128
WIRE 160 -32 144 -32
WIRE 288 -32 160 -32
WIRE 464 -32 464 -128
WIRE 464 -32 352 -32
WIRE -16 80 -32 80
WIRE 32 80 -16 80
WIRE 160 80 160 -32
WIRE 160 80 112 80
WIRE 336 80 160 80
WIRE 464 96 464 -32
WIRE 464 96 400 96
WIRE 480 96 464 96
WIRE 336 112 304 112
WIRE -16 144 -16 80
WIRE -16 272 -16 224
WIRE 304 272 304 112
FLAG 304 272 0
FLAG -16 272 0
FLAG -32 80 1
IOPIN -32 80 In
FLAG 480 96 2
IOPIN 480 96 In
FLAG 144 -32 3
IOPIN 144 -32 In
SYMBOL voltage -16 128 R0
WINDOW 123 29 90 Left 2
WINDOW 39 0 0 Left 0
WINDOW 3 -384 68 Left 2
SYMATTR Value2 AC 1
SYMATTR Value PULSE(0 1 1m 2m 0 0 5m)
SYMATTR InstName V1
SYMBOL OpAmps\\opamp 368 32 R0
SYMATTR InstName U1
SYMBOL res 128 64 R90
WINDOW 0 0 56 VBottom 2
WINDOW 3 32 56 VTop 2
SYMATTR InstName R1
SYMATTR Value 1k
SYMBOL res 272 -112 R270
WINDOW 0 32 56 VTop 2
WINDOW 3 0 56 VBottom 2
SYMATTR InstName Rf
SYMATTR Value 100k
SYMBOL cap 352 -48 R90
WINDOW 0 0 32 VBottom 2
WINDOW 3 32 32 VTop 2
SYMATTR InstName Cf
SYMATTR Value 1µ
TEXT -272 72 Left 2 !.lib opamp.sub
TEXT -336 96 Left 2 ;;.ac dec 100 1 100e3
TEXT -272 40 Left 2 ;Integrator V1
TEXT -336 120 Left 2 !.tran 0 20m 0
