Version 4
SHEET 1 880 680
WIRE 272 -16 256 -16
WIRE 320 -16 272 -16
WIRE 464 -16 400 -16
WIRE 96 80 80 80
WIRE 160 80 96 80
WIRE 272 80 272 -16
WIRE 272 80 240 80
WIRE 336 80 272 80
WIRE 464 96 464 -16
WIRE 464 96 400 96
WIRE 480 96 464 96
WIRE 96 112 96 80
WIRE 336 112 304 112
WIRE 304 144 304 112
WIRE 96 224 96 192
FLAG 304 144 0
FLAG 96 224 0
FLAG 80 80 1
IOPIN 80 80 In
FLAG 480 96 2
IOPIN 480 96 In
FLAG 256 -16 3
IOPIN 256 -16 In
SYMBOL voltage 96 96 R0
WINDOW 123 29 90 Left 2
WINDOW 39 0 0 Left 0
WINDOW 3 31 86 Left 2
SYMATTR Value 1
SYMATTR InstName V1
SYMBOL OpAmps\\opamp 368 32 R0
SYMATTR InstName U1
SYMBOL res 256 64 R90
WINDOW 0 0 56 VBottom 2
WINDOW 3 32 56 VTop 2
SYMATTR InstName R1
SYMATTR Value 2k
SYMBOL res 304 0 R270
WINDOW 0 32 56 VTop 2
WINDOW 3 0 56 VBottom 2
SYMATTR InstName Rf
SYMATTR Value 2k
TEXT -160 72 Left 2 ;Inverting v1
