Version 4
SHEET 1 4760 5064
WIRE -336 2208 -352 2208
WIRE -240 2208 -240 2192
WIRE -240 2208 -272 2208
WIRE -208 2208 -240 2208
WIRE -112 2208 -112 2192
WIRE -112 2208 -128 2208
WIRE -96 2208 -112 2208
WIRE 0 2208 -16 2208
WIRE -240 2240 -240 2208
WIRE -784 2272 -784 2240
WIRE -688 2272 -688 2240
WIRE -592 2272 -592 2240
WIRE -496 2272 -496 2240
WIRE -32 2288 -48 2288
WIRE 64 2288 -32 2288
WIRE 144 2288 64 2288
WIRE 1296 2288 224 2288
WIRE 64 2304 64 2288
WIRE 1456 2304 1376 2304
WIRE 1584 2304 1520 2304
WIRE -240 2336 -240 2320
WIRE -32 2336 -32 2288
WIRE 64 2384 64 2368
WIRE -784 2400 -784 2352
WIRE -688 2400 -688 2352
WIRE -592 2400 -592 2352
WIRE -496 2400 -496 2352
WIRE 1376 2416 1376 2304
WIRE 1376 2416 1360 2416
WIRE 1456 2416 1376 2416
WIRE 1584 2416 1584 2304
WIRE 1584 2416 1536 2416
WIRE 1600 2416 1584 2416
WIRE 1808 2416 1776 2416
WIRE 1904 2416 1808 2416
WIRE 2064 2416 1984 2416
WIRE 2080 2416 2064 2416
WIRE -352 2432 -352 2208
WIRE -352 2432 -480 2432
WIRE -32 2464 -32 2416
WIRE -32 2464 -48 2464
WIRE 0 2464 -32 2464
WIRE 112 2464 112 2448
WIRE 112 2464 64 2464
WIRE 624 2464 576 2464
WIRE 576 2480 576 2464
WIRE 624 2512 624 2464
WIRE -416 2528 -416 2512
WIRE 112 2528 112 2464
WIRE 208 2528 112 2528
WIRE 592 2528 208 2528
WIRE 1472 2528 1472 2512
WIRE -480 2544 -480 2432
WIRE -448 2544 -480 2544
WIRE 688 2544 656 2544
WIRE 720 2544 688 2544
WIRE 800 2544 800 2496
WIRE 800 2544 784 2544
WIRE 832 2544 800 2544
WIRE 928 2544 928 2512
WIRE 928 2544 912 2544
WIRE 992 2544 928 2544
WIRE 1008 2544 992 2544
WIRE 1104 2544 1104 2528
WIRE 1104 2544 1072 2544
WIRE 1152 2544 1104 2544
WIRE 1296 2544 1296 2288
WIRE 1296 2544 1232 2544
WIRE 1376 2544 1376 2416
WIRE 1376 2544 1296 2544
WIRE 1440 2544 1376 2544
WIRE 1968 2544 1968 2528
WIRE -912 2560 -1072 2560
WIRE -352 2560 -352 2432
WIRE -352 2560 -384 2560
WIRE -256 2560 -256 2528
WIRE -256 2560 -352 2560
WIRE -176 2560 -256 2560
WIRE -32 2560 -32 2464
WIRE -32 2560 -112 2560
WIRE 0 2560 -32 2560
WIRE 112 2560 112 2528
WIRE 112 2560 80 2560
WIRE 208 2560 208 2528
WIRE 592 2560 544 2560
WIRE 1584 2560 1584 2416
WIRE 1584 2560 1504 2560
WIRE 1632 2560 1584 2560
WIRE 1696 2560 1632 2560
WIRE 1808 2560 1808 2416
WIRE 1808 2560 1776 2560
WIRE 1936 2560 1808 2560
WIRE -784 2576 -784 2544
WIRE -784 2576 -848 2576
WIRE -752 2576 -784 2576
WIRE -640 2576 -640 2544
WIRE -640 2576 -672 2576
WIRE -624 2576 -640 2576
WIRE -528 2576 -528 2544
WIRE -528 2576 -560 2576
WIRE -448 2576 -528 2576
WIRE 1440 2576 1392 2576
WIRE 2064 2576 2064 2416
WIRE 2064 2576 2000 2576
WIRE 2080 2576 2064 2576
WIRE 2176 2576 2176 2560
WIRE 2176 2576 2144 2576
WIRE 2192 2576 2176 2576
WIRE 2288 2576 2272 2576
WIRE 2304 2576 2288 2576
WIRE -1072 2592 -1072 2560
WIRE -912 2592 -992 2592
WIRE -256 2592 -256 2560
WIRE -208 2592 -256 2592
WIRE 624 2592 624 2576
WIRE 1296 2592 1296 2544
WIRE 1296 2592 1232 2592
WIRE 1632 2592 1632 2560
WIRE 1936 2592 1888 2592
WIRE -416 2608 -416 2592
WIRE 928 2608 928 2544
WIRE 992 2608 992 2544
WIRE 1472 2608 1472 2592
WIRE 2288 2608 2288 2576
WIRE -256 2624 -256 2592
WIRE -208 2624 -208 2592
WIRE 1296 2624 1296 2592
WIRE 1968 2624 1968 2608
WIRE -528 2640 -528 2576
WIRE -992 2688 -992 2592
WIRE -912 2688 -992 2688
WIRE -784 2688 -784 2576
WIRE -784 2688 -832 2688
WIRE 208 2688 208 2640
WIRE 208 2688 144 2688
WIRE 1232 2688 1232 2592
WIRE -1072 2704 -1072 2672
WIRE 1104 2704 1104 2544
WIRE 1632 2704 1632 2672
WIRE 1648 2704 1632 2704
WIRE 2288 2704 2288 2688
WIRE 2288 2704 2272 2704
WIRE 2304 2704 2288 2704
WIRE 2416 2704 2384 2704
WIRE 2448 2704 2416 2704
WIRE -992 2720 -992 2688
WIRE 208 2720 208 2688
WIRE 432 2720 400 2720
WIRE 544 2720 544 2560
WIRE 544 2720 496 2720
WIRE 576 2720 544 2720
WIRE 688 2720 688 2544
WIRE 688 2720 640 2720
WIRE 704 2720 688 2720
WIRE 1296 2720 1296 2688
WIRE 1312 2720 1296 2720
WIRE 2288 2720 2288 2704
WIRE 2416 2736 2416 2704
WIRE -256 2752 -256 2704
WIRE -208 2752 -208 2688
WIRE -208 2752 -256 2752
WIRE 928 2752 928 2672
WIRE 992 2752 992 2672
WIRE 1296 2752 1296 2720
WIRE 1632 2752 1632 2704
WIRE -256 2816 -256 2752
WIRE -256 2816 -288 2816
WIRE -160 2816 -256 2816
WIRE -32 2816 -160 2816
WIRE 1104 2816 1104 2768
WIRE 1104 2816 1072 2816
WIRE 2288 2816 2288 2800
WIRE -992 2832 -992 2800
WIRE -528 2832 -528 2720
WIRE -528 2832 -560 2832
WIRE 208 2832 208 2800
WIRE 256 2832 208 2832
WIRE 400 2832 400 2720
WIRE 400 2832 336 2832
WIRE 432 2832 400 2832
WIRE 544 2832 544 2720
WIRE 544 2832 512 2832
WIRE 576 2832 544 2832
WIRE 688 2832 688 2720
WIRE 688 2832 656 2832
WIRE 2416 2832 2416 2816
WIRE -32 2848 -32 2816
WIRE 208 2848 208 2832
WIRE 400 2848 400 2832
WIRE 544 2848 544 2832
WIRE 1104 2848 1104 2816
WIRE -160 2864 -160 2816
WIRE 1632 2896 1632 2832
WIRE 1632 2896 1616 2896
WIRE 1712 2896 1632 2896
WIRE 1808 2896 1808 2560
WIRE 1808 2896 1776 2896
WIRE 1632 2928 1632 2896
WIRE -256 2944 -256 2816
WIRE -32 2976 -32 2928
WIRE -32 2976 -64 2976
WIRE 1104 2976 1104 2928
WIRE 1104 2976 -32 2976
WIRE 1232 2976 1232 2768
WIRE 1232 2976 1104 2976
WIRE 1296 2976 1296 2832
WIRE 1296 2976 1232 2976
WIRE -160 2992 -160 2928
WIRE -160 2992 -176 2992
WIRE -160 3024 -160 2992
WIRE -32 3040 -32 2976
WIRE 1632 3056 1632 3008
WIRE 1632 3056 1616 3056
WIRE 1728 3056 1632 3056
WIRE 2064 3056 2064 2576
WIRE 2064 3056 1808 3056
WIRE -528 3168 -528 2832
WIRE -256 3168 -256 3024
WIRE -256 3168 -528 3168
WIRE -160 3168 -160 3104
WIRE -160 3168 -256 3168
WIRE -32 3168 -32 3120
WIRE -32 3168 -160 3168
WIRE 144 3168 144 2688
WIRE 144 3168 -32 3168
WIRE 1392 3168 1392 2576
WIRE 1392 3168 144 3168
WIRE 1888 3168 1888 2592
WIRE 1888 3168 1392 3168
FLAG -784 2544 1
IOPIN -784 2544 In
FLAG 992 2752 0
FLAG 928 2752 0
FLAG 64 2384 0
FLAG 2448 2704 2
IOPIN 2448 2704 In
FLAG -1072 2704 0
FLAG 2416 2832 0
FLAG -640 2544 3
IOPIN -640 2544 In
FLAG -528 2544 4
IOPIN -528 2544 In
FLAG -256 2528 7
IOPIN -256 2528 In
FLAG -48 2464 8
IOPIN -48 2464 In
FLAG -48 2288 10
IOPIN -48 2288 In
FLAG 112 2448 9
IOPIN 112 2448 In
FLAG 800 2496 15
IOPIN 800 2496 In
FLAG 928 2512 16
IOPIN 928 2512 In
FLAG 1104 2528 17
IOPIN 1104 2528 In
FLAG 1072 2816 28
IOPIN 1072 2816 In
FLAG 1312 2720 29
IOPIN 1312 2720 In
FLAG -64 2976 27
IOPIN -64 2976 In
FLAG -176 2992 26
IOPIN -176 2992 In
FLAG -288 2816 25
IOPIN -288 2816 In
FLAG 1648 2704 32
IOPIN 1648 2704 In
FLAG 1616 2896 30
IOPIN 1616 2896 In
FLAG 1616 3056 31
IOPIN 1616 3056 In
FLAG 1360 2416 18
IOPIN 1360 2416 In
FLAG 1600 2416 19
IOPIN 1600 2416 In
FLAG 1776 2416 20
IOPIN 1776 2416 In
FLAG 2080 2416 21
IOPIN 2080 2416 In
FLAG 2176 2560 22
IOPIN 2176 2560 In
FLAG -784 2400 0
FLAG -688 2400 0
FLAG -592 2400 0
FLAG -496 2400 0
FLAG -784 2240 Vee
FLAG -688 2240 Vvg
FLAG -592 2240 Vbat
FLAG -496 2240 Vpp
FLAG -416 2512 Vbat
FLAG 624 2592 Vbat
FLAG -416 2608 0
FLAG 576 2480 0
FLAG 1472 2512 Vpp
FLAG 1968 2528 Vpp
FLAG 1472 2608 Vee
FLAG 1968 2624 Vee
FLAG -560 2832 Vvg
FLAG -240 2336 0
FLAG -240 2192 5
IOPIN -240 2192 In
FLAG 0 2208 2
IOPIN 0 2208 In
FLAG -112 2192 6
IOPIN -112 2192 In
FLAG 2288 2816 0
FLAG 2272 2704 24
IOPIN 2272 2704 In
FLAG 2304 2576 23
IOPIN 2304 2576 In
FLAG 208 2848 11
IOPIN 208 2848 In
FLAG 400 2848 12
IOPIN 400 2848 In
FLAG 544 2848 13
IOPIN 544 2848 In
FLAG 704 2720 14
IOPIN 704 2720 In
FLAG -992 2832 0
SYMBOL voltage -1072 2576 R0
WINDOW 0 -55 9 Left 2
WINDOW 123 105 684 Left 2
WINDOW 3 107 719 Left 2
SYMATTR InstName V1
SYMATTR Value2 AC 1 0
SYMATTR Value wavefile = clean-electric-guitar-harmonic-reality.wav chan=0
SYMBOL res -656 2560 R90
WINDOW 0 0 56 VBottom 2
WINDOW 3 32 56 VTop 2
SYMATTR InstName R1
SYMATTR Value 10k
SYMBOL res -512 2736 R180
WINDOW 0 -37 67 Left 2
WINDOW 3 -77 30 Left 2
SYMATTR InstName R2
SYMATTR Value 1000k
SYMBOL cap -560 2560 R90
WINDOW 0 0 32 VBottom 2
WINDOW 3 32 32 VTop 2
SYMATTR InstName C1
SYMATTR Value 100n
SYMBOL res -240 2608 M0
SYMATTR InstName R5
SYMATTR Value 5.1k
SYMBOL res -240 2928 M0
SYMATTR InstName R8
SYMATTR Value 1.5k
SYMBOL cap -112 2544 R90
WINDOW 0 0 32 VBottom 2
WINDOW 3 32 32 VTop 2
SYMATTR InstName C3
SYMATTR Value 100n
SYMBOL cap -224 2624 R0
SYMATTR InstName C4
SYMATTR Value 68n
SYMBOL cap -176 2864 R0
SYMATTR InstName C6
SYMATTR Value 390n
SYMBOL res -176 3008 R0
SYMATTR InstName R9
SYMATTR Value 1k
SYMBOL res 96 2544 R90
WINDOW 0 0 56 VBottom 2
WINDOW 3 32 56 VTop 2
SYMATTR InstName R6
SYMATTR Value 10k
SYMBOL cap 64 2448 R90
WINDOW 0 0 32 VBottom 2
WINDOW 3 32 32 VTop 2
SYMATTR InstName C5
SYMATTR Value 68n
SYMBOL res -48 2832 R0
SYMATTR InstName Rp1b2
SYMATTR Value {100k-Rgain}
SYMBOL res -48 3024 R0
SYMATTR InstName Rp1a2
SYMATTR Value {Rgain}
SYMBOL res 928 2560 M270
WINDOW 0 32 56 VTop 2
WINDOW 3 0 56 VBottom 2
SYMATTR InstName R13
SYMATTR Value 1k
SYMBOL cap 1120 2704 M0
SYMATTR InstName C11
SYMATTR Value 2.2n
SYMBOL res 1088 2832 R0
SYMATTR InstName R15
SYMATTR Value 22k
SYMBOL res 1248 2672 M0
SYMATTR InstName R17
SYMATTR Value 27k
SYMBOL res 1280 2736 R0
SYMATTR InstName R18
SYMATTR Value 12k
SYMBOL cap 1280 2624 R0
SYMATTR InstName C12
SYMATTR Value 27n
SYMBOL res 1248 2528 R90
WINDOW 0 0 56 VBottom 2
WINDOW 3 32 56 VTop 2
SYMATTR InstName R16
SYMATTR Value 47k
SYMBOL res -16 2432 R180
WINDOW 0 36 76 Left 2
WINDOW 3 36 40 Left 2
SYMATTR InstName R7
SYMATTR Value 1.5k
SYMBOL res 240 2272 R90
WINDOW 0 0 56 VBottom 2
WINDOW 3 32 56 VTop 2
SYMATTR InstName R24
SYMATTR Value 15k
SYMBOL res 1552 2400 R90
WINDOW 0 0 56 VBottom 2
WINDOW 3 32 56 VTop 2
SYMATTR InstName R20
SYMATTR Value 392k
SYMBOL cap 1520 2288 R90
WINDOW 0 0 32 VBottom 2
WINDOW 3 32 32 VTop 2
SYMATTR InstName C13
SYMATTR Value 820p
SYMBOL res 1616 2576 R0
SYMATTR InstName R21
SYMATTR Value 1.8k
SYMBOL res 1792 2544 R90
WINDOW 0 0 56 VBottom 2
WINDOW 3 32 56 VTop 2
SYMATTR InstName R22
SYMATTR Value 100k
SYMBOL res 1616 2736 R0
WINDOW 3 -2 104 Right 2
SYMATTR Value {10k-Rtone}
SYMATTR InstName Rp2a
SYMBOL res 1616 2912 R0
SYMATTR InstName Rp2b
SYMATTR Value {Rtone}
SYMBOL cap 1776 2880 R90
WINDOW 0 0 32 VBottom 2
WINDOW 3 32 32 VTop 2
SYMATTR InstName C14
SYMATTR Value 3.9n
SYMBOL res 2000 2400 R90
WINDOW 0 0 56 VBottom 2
WINDOW 3 32 56 VTop 2
SYMATTR InstName R241
SYMATTR Value 100k
SYMBOL res 2288 2560 R90
WINDOW 0 0 56 VBottom 2
WINDOW 3 32 56 VTop 2
SYMATTR InstName R25
SYMATTR Value 560
SYMBOL res 1824 3040 R90
WINDOW 0 0 56 VBottom 2
WINDOW 3 32 56 VTop 2
SYMATTR InstName R23
SYMATTR Value 4.7k
SYMBOL res 2400 2720 R0
SYMATTR InstName R28
SYMATTR Value 100k
SYMBOL diode 944 2672 R180
WINDOW 0 24 64 Left 2
WINDOW 3 24 0 Left 2
SYMATTR InstName D2
SYMATTR Value 1N34A
SYMBOL diode 976 2608 R0
SYMATTR InstName D3
SYMATTR Value 1N34A
SYMBOL polcap 48 2304 R0
SYMATTR InstName C16
SYMATTR Value 1µ
SYMBOL polcap 720 2560 R270
WINDOW 0 32 32 VTop 2
WINDOW 3 0 32 VBottom 2
SYMATTR InstName C9
SYMATTR Value 1µ
SYMBOL polcap 1072 2528 R90
WINDOW 0 0 32 VBottom 2
WINDOW 3 32 32 VTop 2
SYMATTR InstName C10
SYMATTR Value 1µ
SYMBOL polcap 2080 2592 R270
WINDOW 0 32 32 VTop 2
WINDOW 3 0 32 VBottom 2
SYMATTR InstName C15
SYMATTR Value 4.7µ
SYMBOL voltage -784 2256 R0
WINDOW 123 0 0 Left 0
WINDOW 39 0 0 Left 0
SYMATTR InstName V2
SYMATTR Value -9
SYMBOL voltage -688 2256 R0
WINDOW 123 0 0 Left 0
WINDOW 39 0 0 Left 0
SYMATTR InstName V3
SYMATTR Value 4.5
SYMBOL voltage -592 2256 R0
WINDOW 123 0 0 Left 0
WINDOW 39 0 0 Left 0
SYMATTR InstName V4
SYMATTR Value 9
SYMBOL voltage -496 2256 R0
WINDOW 123 0 0 Left 0
WINDOW 39 0 0 Left 0
SYMATTR InstName V5
SYMATTR Value 18
SYMBOL OpAmps\\opamp2 -416 2496 R0
SYMATTR InstName U1a
SYMATTR Value TL072
SYMBOL OpAmps\\opamp2 624 2608 M180
SYMATTR InstName U1b
SYMATTR Value TL072
SYMBOL OpAmps\\opamp2 1472 2496 R0
SYMATTR InstName U2a
SYMATTR Value TL072
SYMBOL OpAmps\\opamp2 1968 2512 R0
SYMATTR InstName U2b
SYMATTR Value TL072
SYMBOL res -256 2224 R0
SYMATTR InstName R3
SYMATTR Value 100k
SYMBOL res -112 2192 R90
WINDOW 0 0 56 VBottom 2
WINDOW 3 32 56 VTop 2
SYMATTR InstName R4
SYMATTR Value 560
SYMBOL polcap -336 2224 R270
WINDOW 0 32 32 VTop 2
WINDOW 3 0 32 VBottom 2
SYMATTR InstName C2
SYMATTR Value 4.7µ
SYMBOL res 0 2192 R90
WINDOW 0 0 56 VBottom 2
WINDOW 3 32 56 VTop 2
SYMATTR InstName R26
SYMATTR Value 68k
SYMBOL res 2272 2592 R0
WINDOW 3 -185 57 Left 2
SYMATTR Value {100k-Routput}
SYMATTR InstName Rp3a
SYMBOL res 2272 2704 R0
WINDOW 0 -81 35 Left 2
WINDOW 3 -127 62 Left 2
SYMATTR InstName Rp3b
SYMATTR Value {Routput}
SYMBOL res 2400 2688 R90
WINDOW 0 0 56 VBottom 2
WINDOW 3 32 56 VTop 2
SYMATTR InstName R27
SYMATTR Value 0.01
SYMBOL res 192 2816 M180
WINDOW 0 47 77 Left 2
WINDOW 3 47 52 Left 2
SYMATTR InstName Rp1a1
SYMATTR Value {100k-Rgain}
SYMBOL res 192 2656 M180
WINDOW 0 36 76 Left 2
WINDOW 3 36 40 Left 2
SYMATTR InstName Rp1b1
SYMATTR Value {Rgain}
SYMBOL res 352 2848 M270
WINDOW 0 -29 54 VTop 2
WINDOW 3 -30 61 VBottom 2
SYMATTR InstName R10
SYMATTR Value 2k
SYMBOL res 528 2848 M270
WINDOW 0 32 56 VTop 2
WINDOW 3 0 56 VBottom 2
SYMATTR InstName R11
SYMATTR Value 15k
SYMBOL cap 496 2736 M270
WINDOW 0 32 32 VTop 2
WINDOW 3 0 32 VBottom 2
SYMATTR InstName C7
SYMATTR Value 82n
SYMBOL cap 640 2736 M270
WINDOW 0 32 32 VTop 2
WINDOW 3 0 32 VBottom 2
SYMATTR InstName C8
SYMATTR Value 390p
SYMBOL res 672 2848 M270
WINDOW 0 32 56 VTop 2
WINDOW 3 0 56 VBottom 2
SYMATTR InstName R12
SYMATTR Value 422k
SYMBOL OpAmps\\opamp -880 2640 M180
SYMATTR InstName U1
SYMBOL res -1008 2704 R0
SYMATTR InstName R14
SYMATTR Value 1e10
SYMBOL res -816 2672 R90
WINDOW 0 0 56 VBottom 2
WINDOW 3 32 56 VTop 2
SYMATTR InstName R19
SYMATTR Value 0
TEXT 552 1920 Left 2 !.param Rgain=75k
TEXT 552 1944 Left 2 !.param Rtone=5k
TEXT 208 1984 Left 2 ;;.ac dec 1000 10 100k
TEXT 1512 2744 Left 2 ;CW end
TEXT -8 3136 Left 2 ;CW end
TEXT 552 2024 Left 2 ;;.step param Rtone list 1 1k 2k 5k 9.9k
TEXT 2416 2672 Left 2 ;Output
TEXT 1536 3112 Left 2 ;Rp2a & Rp2b = 10k pot
TEXT 296 3200 Left 2 ;Rp1a1, Rp1b1, Rp1a2 & Rp1a2 = dual gang 100k pot
TEXT -88 3272 Left 2 !.model 1N34A D(bv=75 cjo=0.5e-12 eg=0.67 ibv=18e-3 is=2e-7 rs=7 n=1.3 vj=0.1 m=0.27)
TEXT 208 1960 Left 2 !.tran 0 6.5 0
TEXT 2528 2280 Left 2 !* TL072 OPERATIONAL AMPLIFIER "MACROMODEL" SUBCIRCUIT\n* CREATED USING PARTS RELEASE 4.01 ON 06/16/89 AT 13:08\n* (REV N/A)      SUPPLY VOLTAGE: +/-15V\n* CONNECTIONS:   NON-INVERTING INPUT\n*                | INVERTING INPUT\n*                | | POSITIVE POWER SUPPLY\n*                | | | NEGATIVE POWER SUPPLY\n*                | | | | OUTPUT\n*                | | | | |\n.SUBCKT TL072    1 2 3 4 5\n*\n  C1   11 12 3.498E-12\n  C2    6  7 15.00E-12\n  DC    5 53 DX\n  DE   54  5 DX\n  DLP  90 91 DX\n  DLN  92 90 DX\n  DP    4  3 DX\n  EGND 99  0 POLY(2) (3,0) (4,0) 0 .5 .5\n  FB    7 99 POLY(5) VB VC VE VLP VLN 0 4.715E6 -5E6 5E6 5E6 -5E6\n  GA    6  0 11 12 282.8E-6\n  GCM   0  6 10 99 8.942E-9\n  ISS   3 10 DC 195.0E-6\n  HLIM 90  0 VLIM 1K\n  J1   11  2 10 JX\n  J2   12  1 10 JX\n  R2    6  9 100.0E3\n  RD1   4 11 3.536E3\n  RD2   4 12 3.536E3\n  RO1   8  5 150\n  RO2   7 99 150\n  RP    3  4 2.143E3\n  RSS  10 99 1.026E6\n  VB    9  0 DC 0\n  VC    3 53 DC 2.200\n  VE   54  4 DC 2.200\n  VLIM  7  8 DC 0\n  VLP  91  0 DC 25\n  VLN   0 92 DC 25\n.MODEL DX D(IS=800.0E-18)\n.MODEL JX PJF(IS=15.00E-12 BETA=270.1E-6 VTO=-1)\n.ENDS
TEXT -72 2144 Left 2 ;Bypass output
TEXT 552 1896 Left 2 !.param Routput=30k
TEXT 2336 2608 Left 2 ;CW end
TEXT 2112 2880 Left 2 ;Rp3a & Rp3b = 100k pot
TEXT 240 2792 Left 2 ;CW end
TEXT 176 1912 Left 2 ;Last update: 7 Sept 2024
TEXT 552 2072 Left 2 ;;.step param V1_amp list 0.1 0.25 0.5 0.75 1.0 1.25 1.5
TEXT 552 2048 Left 2 ;;.step param Rgain list 1 250 500 750 1k 2.5k 5k 7.5k 10k 15k 20k 25k 30k 35k 40k 45k 50k 55k 60k 65k 70k 75k 80k 85k 90k 92.5k 95k 97.5k 99.9k
TEXT 552 1968 Left 2 ;;.param V1_amp=0.25
TEXT 208 2016 Left 2 ;;.op
TEXT -664 3360 Left 2 ;wavefile = clean-electric-guitar-harmonic-reality.wav chan=0
TEXT 1944 3224 Left 2 !.wave "klon_out.wav" 16 44.1k V(2)
TEXT -664 3384 Left 2 ;wavefile = clean-electric-guitar-comfy-afternoon.wav chan=0
TEXT -656 3448 Left 2 !.lib opamp.sub
TEXT -944 2520 Left 2 ;PreAmp
