Version 4
SHEET 1 4496 5064
WIRE 960 2544 896 2544
WIRE 1056 2544 1024 2544
WIRE 1184 2544 1136 2544
WIRE 1248 2544 1184 2544
WIRE 1312 2544 1248 2544
WIRE 1424 2544 1376 2544
WIRE 1584 2544 1424 2544
WIRE 896 2576 896 2544
WIRE 1424 2592 1424 2544
WIRE 1584 2592 1584 2544
WIRE 1184 2608 1184 2544
WIRE 1248 2608 1248 2544
WIRE 1424 2672 1424 2656
WIRE 896 2688 896 2656
WIRE 1584 2736 1584 2672
WIRE 1184 2752 1184 2672
WIRE 1248 2752 1248 2672
WIRE 1424 2784 1424 2752
WIRE 1424 2880 1424 2864
FLAG 1248 2752 0
FLAG 1184 2752 0
FLAG 896 2688 0
FLAG 1424 2880 0
FLAG 1584 2736 0
SYMBOL voltage 896 2560 R0
WINDOW 0 -55 9 Left 2
WINDOW 123 -125 136 Left 2
WINDOW 39 0 0 Left 0
WINDOW 3 -129 164 Left 2
SYMATTR InstName V1
SYMATTR Value2 AC 1 0
SYMATTR Value SINE(0 1 1e3)
SYMBOL res 1152 2560 M270
WINDOW 0 32 56 VTop 2
WINDOW 3 0 56 VBottom 2
SYMATTR InstName R13
SYMATTR Value 1k
SYMBOL cap 1440 2592 M0
SYMATTR InstName C11
SYMATTR Value 2.2n
SYMBOL res 1408 2656 R0
SYMATTR InstName R15
SYMATTR Value 22k
SYMBOL diode 1200 2672 R180
WINDOW 0 24 64 Left 2
WINDOW 3 24 0 Left 2
SYMATTR InstName D2
SYMATTR Value 1N34A
SYMBOL diode 1232 2608 R0
SYMATTR InstName D3
SYMATTR Value 1N34A
SYMBOL polcap 960 2560 R270
WINDOW 0 32 32 VTop 2
WINDOW 3 0 32 VBottom 2
SYMATTR InstName C9
SYMATTR Value 1µ
SYMBOL polcap 1376 2528 R90
WINDOW 0 0 32 VBottom 2
WINDOW 3 32 32 VTop 2
SYMATTR InstName C10
SYMATTR Value 1µ
SYMBOL res 1408 2768 R0
SYMATTR InstName R1
SYMATTR Value 1
SYMBOL res 1568 2576 R0
SYMATTR InstName R16
SYMATTR Value 47k
TEXT 784 2944 Left 2 !.lib opamp.sub
TEXT 784 2968 Left 2 !;ac dec 1000 10 100k
TEXT 784 2992 Left 2 !.model 1N34A D(bv=75 cjo=0.5e-12 eg=0.67 ibv=18e-3 is=2e-7 rs=7 n=1.3 vj=0.1 m=0.27)
TEXT 1304 2936 Left 2 ;This end at ground when P1 is fully CW
TEXT 784 2920 Left 2 !.tran 0 5e-3 0
