Version 4
SHEET 1 1088 680
WIRE -48 80 -48 64
WIRE 80 80 -48 80
WIRE 128 80 80 80
WIRE 288 80 288 64
WIRE 288 80 208 80
WIRE 384 80 288 80
WIRE 656 80 384 80
WIRE 832 80 736 80
WIRE 848 80 832 80
WIRE 80 112 80 80
WIRE 832 112 832 80
WIRE 384 128 384 80
WIRE 288 160 288 80
WIRE -48 208 -48 80
WIRE 80 208 80 176
WIRE 80 208 64 208
WIRE 832 224 832 176
WIRE 848 224 832 224
WIRE 80 240 80 208
WIRE 288 272 288 224
WIRE 288 272 272 272
WIRE 384 272 384 208
WIRE 384 272 288 272
WIRE 464 272 384 272
WIRE 688 272 688 256
WIRE 688 272 544 272
WIRE 832 288 832 224
WIRE 384 320 384 272
WIRE 688 320 688 272
WIRE -48 448 -48 288
WIRE 80 448 80 320
WIRE 80 448 -48 448
WIRE 160 448 80 448
WIRE 384 448 384 384
WIRE 384 448 240 448
WIRE 448 448 384 448
WIRE 560 448 528 448
WIRE 592 448 560 448
WIRE 688 448 688 384
WIRE 688 448 672 448
WIRE 720 448 688 448
WIRE 832 448 832 368
WIRE 832 448 800 448
WIRE 848 448 832 448
WIRE 384 464 384 448
WIRE 560 464 560 448
WIRE 688 464 688 448
WIRE -48 496 -48 448
FLAG -48 496 0
FLAG -48 64 1
IOPIN -48 64 In
FLAG 64 208 2
IOPIN 64 208 In
FLAG 288 64 3
IOPIN 288 64 In
FLAG 272 272 4
IOPIN 272 272 In
FLAG 384 464 5
IOPIN 384 464 In
FLAG 560 464 6
IOPIN 560 464 In
FLAG 688 464 8
IOPIN 688 464 In
FLAG 848 448 11
IOPIN 848 448 In
FLAG 848 224 10
IOPIN 848 224 In
FLAG 848 80 9
IOPIN 848 80 In
FLAG 688 256 7
IOPIN 688 256 In
SYMBOL voltage -48 192 R0
WINDOW 123 0 0 Left 0
WINDOW 39 0 0 Left 0
WINDOW 3 -11 370 Left 2
SYMATTR InstName V1
SYMATTR Value PULSE(0 1 1 1e-10 0 20 100 2)
SYMBOL cap 64 112 R0
SYMATTR InstName C1
SYMATTR Value {1/500}
SYMBOL cap 272 160 R0
WINDOW 3 -140 60 Left 2
SYMATTR InstName Ceq
SYMATTR Value {1/(500+250)}
SYMBOL cap 368 320 R0
SYMATTR InstName C4
SYMATTR Value {1/300}
SYMBOL cap 672 320 R0
SYMATTR InstName C5
SYMATTR Value {1/200}
SYMBOL cap 816 112 R0
SYMATTR InstName C6
SYMATTR Value {1/180}
SYMBOL res 64 224 R0
SYMATTR InstName R1
SYMATTR Value 80
SYMBOL res 256 432 R90
WINDOW 0 0 56 VBottom 2
WINDOW 3 32 56 VTop 2
SYMATTR InstName R2
SYMATTR Value 30
SYMBOL res 368 112 R0
SYMATTR InstName R3
SYMATTR Value 50
SYMBOL res 560 256 R90
WINDOW 0 0 56 VBottom 2
WINDOW 3 32 56 VTop 2
SYMATTR InstName R4
SYMATTR Value 40
SYMBOL res 688 432 R90
WINDOW 0 0 56 VBottom 2
WINDOW 3 32 56 VTop 2
SYMATTR InstName R5
SYMATTR Value 10
SYMBOL res 816 432 R90
WINDOW 0 0 56 VBottom 2
WINDOW 3 32 56 VTop 2
SYMATTR InstName R7
SYMATTR Value 20
SYMBOL res 848 384 R180
WINDOW 0 36 76 Left 2
WINDOW 3 36 40 Left 2
SYMATTR InstName R6
SYMATTR Value 30
SYMBOL ind2 112 96 R270
WINDOW 0 32 56 VTop 2
WINDOW 3 5 56 VBottom 2
SYMATTR InstName L1
SYMATTR Value 100
SYMATTR Type ind
SYMBOL ind2 640 96 R270
WINDOW 0 32 56 VTop 2
WINDOW 3 5 56 VBottom 2
SYMATTR InstName L3
SYMATTR Value 80
SYMATTR Type ind
SYMBOL ind2 544 464 M270
WINDOW 0 32 56 VTop 2
WINDOW 3 5 56 VBottom 2
SYMATTR InstName L2
SYMATTR Value 40
SYMATTR Type ind
TEXT -32 600 Left 2 ;Translational mechanical system v1
TEXT -30 628 Left 2 !.tran 0 20 0
